  61
        -11.16586393
 O         -0.9876808044        0.8857490249       -1.7618380379
 C          3.2045210481        3.8228080745       -1.3353489159
 H          3.2030032051        4.1257639061       -2.3656739308
 H          3.1402305638        4.6080416925       -0.6047966183
 C          3.2950358597        2.5603830194       -0.9886197363
 H          3.2731943664        2.2512097413        0.0391350468
 H          3.3495080108        1.7764483519       -1.7181791711
 N          0.4196944083       -3.3420843327        0.7575347777
 C          0.2104363552       -3.5958534907        2.1931103006
 H          0.4680654543       -4.6246245910        2.4403409375
 H         -0.8334123256       -3.4264079606        2.4533809417
 H          0.8260678635       -2.9317259793        2.7979036258
 C         -0.4166861515       -4.2610726011       -0.0582905258
 H         -1.4634203531       -4.1804646322        0.2287516059
 H         -0.0999048063       -5.2928827896        0.0833536450
 H         -0.3261253558       -4.0109231454       -1.1140783196
 C          1.8456254568       -3.4745456453        0.4141630486
 H          2.1669835112       -4.5103579206        0.5108265822
 H          2.4629372366       -2.8651233176        1.0704399995
 H          2.0105589135       -3.1528643675       -0.6130623336
 H         -1.0262330626        0.9519004577       -2.7316398267
 C         -4.0587765182        1.7922546319       -0.0384625168
 O         -5.0122068162        2.4720772553        0.3131158963
 N         -3.5290082104        1.8986933702       -1.3000130772
 H         -3.8248813761        2.6460183138       -1.8910956912
 H         -2.5927104881        1.5704550669       -1.5021154541
 N         -3.4932480410        0.8702700226        0.8086970499
 H         -2.9173738484        0.1117353664        0.4337593041
 H         -3.9936286931        0.6092635309        1.6368590247
 C          2.5632728469       -0.1112048221        1.7249527863
 O          3.4164349860       -0.9731451086        1.5798221818
 N          2.8974129934        1.1536547702        2.1166678415
 H          3.8529138169        1.4168523001        2.2644685481
 H          2.2143275152        1.9012154070        2.1267212313
 N          1.2432219276       -0.3680271067        1.4718662230
 H          0.5274852057        0.3401806757        1.6181540945
 H          0.9272795311       -1.3128929262        1.2667721721
 C          2.6896315861       -0.5391912357       -2.2027027465
 O          2.8021669481       -0.4607513614       -3.4156262334
 N          3.7169378229       -0.9820832825       -1.4174490651
 H          4.6081328976       -1.2235632151       -1.8073537721
 H          3.6406644708       -0.9846424433       -0.4066861374
 N          1.5505574331       -0.1761405084       -1.5450794307
 H          1.4860958772       -0.2212619088       -0.5378659986
 H          0.7289170851        0.1924343871       -1.9904707224
 C          0.0903010896        2.6742102889        1.3310113867
 O          0.9128323884        3.2588903397        2.0230435436
 N         -0.8650446895        1.8814748738        1.9205627868
 H         -1.0161667767        1.9698752834        2.9070826854
 H         -1.7081593761        1.6015369617        1.4293831568
 N          0.1526441118        2.7383635607       -0.0365684811
 H         -0.3301486231        2.0756907969       -0.6281041145
 H          0.9710154419        3.1136675696       -0.4679264309
 C         -3.0181405016       -1.9539215824       -0.5854743899
 O         -3.2966295050       -3.0770186355       -0.1909481376
 N         -3.9425752026       -1.1872533564       -1.2477284242
 H         -4.8937151805       -1.4959147518       -1.3170351362
 H         -3.8139192828       -0.1801676439       -1.3473634550
 N         -1.7832191455       -1.3982970694       -0.3550731522
 H         -1.4480172423       -0.6327118046       -0.9282932712
 H         -1.0488514093       -1.9940117646       -0.0008779136
