  61
        -11.16586393
 O         -0.9876808044        0.8857490249       -1.7618380379
 C          3.2045210481        3.8228080745       -1.3353489159
 H          3.2030032051        4.1257639061       -2.3656739308
 H          3.1402305638        4.6080416925       -0.6047966183
 C          3.2950358597        2.5603830194       -0.9886197363
 H          3.2731943664        2.2512097413        0.0391350468
 H          3.3495080108        1.7764483519       -1.7181791711
 N          0.4196944083       -3.3420843327        0.7575347777
 C          0.2104363552       -3.5958534907        2.1931103006
 H          0.4680654543       -4.6246245910        2.4403409375
 H         -0.8334123256       -3.4264079606        2.4533809417
 H          0.8260678635       -2.9317259793        2.7979036258
 C         -0.4166861515       -4.2610726011       -0.0582905258
 H         -1.4634203531       -4.1804646322        0.2287516059
 H         -0.0999048063       -5.2928827896        0.0833536450
 H         -0.3261253558       -4.0109231454       -1.1140783196
 C          1.8456254568       -3.4745456453        0.4141630486
 H          2.1669835112       -4.5103579206        0.5108265822
 H          2.4629372366       -2.8651233176        1.0704399995
 H          2.0105589135       -3.1528643675       -0.6130623336
 H         -1.0262330626        0.9519004577       -2.7316398267
 C         -4.0587765182        1.7922546319       -0.0384625168
 O         -5.0122068162        2.4720772553        0.3131158963
 N         -3.5290082104        1.8986933702       -1.3000130772
 H         -3.8248813761        2.6460183138       -1.8910956912
 H         -2.5927104881        1.5704550669       -1.5021154541
 N         -3.4932480410        0.8702700226        0.8086970499
 H         -2.9173738484        0.1117353664        0.4337593041
 H         -3.9936286931        0.6092635309        1.6368590247
 C          2.5632728469       -0.1112048221        1.7249527863
 O          3.4164349860       -0.9731451086        1.5798221818
 N          2.8974129934        1.1536547702        2.1166678415
 H          3.8529138169        1.4168523001        2.2644685481
 H          2.2143275152        1.9012154070        2.1267212313
 N          1.2432219276       -0.3680271067        1.4718662230
 H          0.5274852057        0.3401806757        1.6181540945
 H          0.9272795311       -1.3128929262        1.2667721721
 C          2.6896315861       -0.5391912357       -2.2027027465
 O          2.8021669481       -0.4607513614       -3.4156262334
 N          3.7169378229       -0.9820832825       -1.4174490651
 H          4.6081328976       -1.2235632151       -1.8073537721
 H          3.6406644708       -0.9846424433       -0.4066861374
 N          1.5505574331       -0.1761405084       -1.5450794307
 H          1.4860958772       -0.2212619088       -0.5378659986
 H          0.7289170851        0.1924343871       -1.9904707224
 C          0.0903010896        2.6742102889        1.3310113867
 O          0.9128323884        3.2588903397        2.0230435436
 N         -0.8650446895        1.8814748738        1.9205627868
 H         -1.0161667767        1.9698752834        2.9070826854
 H         -1.7081593761        1.6015369617        1.4293831568
 N          0.1526441118        2.7383635607       -0.0365684811
 H         -0.3301486231        2.0756907969       -0.6281041145
 H          0.9710154419        3.1136675696       -0.4679264309
 C         -3.0181405016       -1.9539215824       -0.5854743899
 O         -3.2966295050       -3.0770186355       -0.1909481376
 N         -3.9425752026       -1.1872533564       -1.2477284242
 H         -4.8937151805       -1.4959147518       -1.3170351362
 H         -3.8139192828       -0.1801676439       -1.3473634550
 N         -1.7832191455       -1.3982970694       -0.3550731522
 H         -1.4480172423       -0.6327118046       -0.9282932712
 H         -1.0488514093       -1.9940117646       -0.0008779136
  61
        -11.16507732
 O         -0.6753266108       -1.2762116741       -1.6350624465
 C          1.1520367850        3.8783024811       -0.6641058295
 H          1.8549714681        3.2350246370       -1.1580051296
 H          0.1248904934        3.7845359810       -0.9622634474
 C          1.5280632913        4.7385221472        0.2526397827
 H          0.8231256187        5.3816088714        0.7451562788
 H          2.5562603064        4.8417536113        0.5461893901
 N         -0.0932185226       -3.9007424195        2.1037501774
 C          0.0439086245       -4.5469206855        0.7746965636
 H         -0.6715783176       -4.1188162181        0.0741532423
 H         -0.1340615819       -5.6179082720        0.8514332135
 H          1.0453249986       -4.3838691912        0.3806648858
 C          0.9145141814       -4.2930518810        3.0938702307
 H          1.9142121726       -4.1261106358        2.6959037965
 H          0.8106373186       -5.3465613465        3.3490167132
 H          0.8033965596       -3.6978986292        3.9989122904
 C         -1.4512871293       -4.0242073836        2.6511668257
 H         -2.1819450742       -3.6706187833        1.9252207923
 H         -1.5484097771       -3.4230279040        3.5538101382
 H         -1.6739281520       -5.0623681031        2.8925781866
 H         -0.5479763119       -2.0687941704       -2.1819109029
 C         -1.9838888132        2.3128061998       -1.5543956234
 O         -1.9088746438        3.5202828929       -1.7221108907
 N         -0.9392482146        1.4795979923       -1.8437287175
 H         -0.1783007124        1.7702031802       -2.4324913030
 H         -1.0419642574        0.4793051687       -1.8361564014
 N         -3.1138130267        1.7327862809       -1.0498528880
 H         -3.2223207630        0.7238474016       -1.0047817501
 H         -3.9444958090        2.2697504550       -0.8899636152
 C          3.5738682194        0.4420458052        0.6561066880
 O          4.7204787075        0.6292024750        0.2761272380
 N          2.7692010725        1.4892246952        1.0179412984
 H          3.0712102906        2.4344691601        0.8816182499
 H          1.7625032054        1.3721285926        1.1020239226
 N          3.0186023772       -0.8077270280        0.6713030020
 H          2.0342711490       -0.9498215691        0.8904047045
 H          3.5546718291       -1.6229773308        0.4385484611
 C          2.1787169949        1.1758431113       -2.6567893160
 O          1.4612607444        1.7193475147       -3.4830984820
 N          3.3677941953        1.7359942868       -2.2746393404
 H          3.6776496049        2.6097041204       -2.6574462933
 H          3.8984739594        1.3695609640       -1.4931752541
 N          1.8211029235        0.0078700782       -2.0335025076
 H          2.2808517652       -0.2708803386       -1.1775376028
 H          0.9032581309       -0.4017373704       -2.1150886945
 C         -0.1130753420        0.0127426980        1.7975396428
 O         -0.0809281535       -0.0538107154        3.0171831479
 N         -0.2612212094        1.2175506888        1.1583485771
 H         -0.5649002059        2.0152582869        1.6816731724
 H         -0.5153124819        1.2695549051        0.1763706500
 N         -0.0001036565       -1.1112645351        1.0282779574
 H         -0.2028107811       -1.1165629565        0.0386836788
 H         -0.0143964767       -2.0325687750        1.4480540377
 C         -3.9503026812       -1.3423265354        0.2046676942
 O         -5.1563040753       -1.4476170731        0.3747766964
 N         -3.4129978496       -1.3401036876       -1.0540607135
 H         -3.9802975411       -1.5822594215       -1.8395178095
 H         -2.4179090092       -1.4059457984       -1.2234151107
 N         -3.1021510580       -1.2110404508        1.2686106449
 H         -2.0986758177       -1.1194141570        1.1662917880
 H         -3.4509241240       -1.1531122325        2.2061529242
  61
        -11.16507114
 O         -0.6703743297       -1.2756886799       -1.6405991850
 C          1.1272881091        3.8620274532       -0.6348230508
 H          1.8393303710        3.2340655915       -1.1354507286
 H          0.1042137288        3.7702699036       -0.9471799551
 C          1.4878417363        4.7015931478        0.3069771024
 H          0.7732958337        5.3279512901        0.8071804483
 H          2.5116909047        4.8027694011        0.6159077140
 N         -0.0994596016       -3.8980977389        2.1117480513
 C          0.0344644223       -4.5536572236        0.7871277651
 H         -0.6652899707       -4.1130922946        0.0784322177
 H         -0.1682572078       -5.6199801479        0.8674702285
 H          1.0426851172       -4.4151881928        0.4011206428
 C          0.8902467590       -4.3105438725        3.1121845022
 H          1.8971592638       -4.1696103348        2.7224557930
 H          0.7586838222       -5.3602165686        3.3704283656
 H          0.7856045102       -3.7091935589        4.0138671367
 C         -1.4643937707       -3.9907534270        2.6481899056
 H         -1.7107016612       -5.0229127683        2.8921996600
 H         -2.1814242961       -3.6256168358        1.9144964686
 H         -1.5565460316       -3.3836391719        3.5473881108
 H         -0.5420613772       -2.0664237518       -2.1900021789
 C         -1.9947234282        2.3095314330       -1.5665875735
 O         -1.9234172843        3.5171169381       -1.7350277609
 N         -0.9444487989        1.4807318580       -1.8482565065
 H         -0.1830509695        1.7739713946       -2.4352560919
 H         -1.0440302771        0.4802070661       -1.8410965784
 N         -3.1252974172        1.7254540862       -1.0689721397
 H         -3.2271064677        0.7163432522       -1.0136226490
 H         -3.9555960017        2.2608194555       -0.9019037747
 C          3.5873130478        0.4346292154        0.6426678695
 O          4.7333999420        0.6204323117        0.2603698397
 N          2.7872173852        1.4826431340        1.0120447397
 H          3.0942290360        2.4273780676        0.8836217134
 H          1.7799922457        1.3694605648        1.0956649676
 N          3.0278330218       -0.8132769501        0.6531853734
 H          2.0442322586       -0.9534881749        0.8768474153
 H          3.5611663078       -1.6291121131        0.4162707519
 C          2.1770779117        1.1896952728       -2.6590996129
 O          1.4567426035        1.7366966340       -3.4805597740
 N          3.3658142058        1.7500182950       -2.2762376678
 H          3.6711063078        2.6285259856       -2.6516978951
 H          3.9006910713        1.3778561734       -1.5003745481
 N          1.8230737505        0.0173741925       -2.0418741223
 H          2.2860117185       -0.2657414418       -1.1890861860
 H          0.9053505104       -0.3928509697       -2.1216979221
 C         -0.0963465693        0.0164374373        1.7903274366
 O         -0.0575433269       -0.0453991835        3.0100014320
 N         -0.2445412965        1.2196535757        1.1479321835
 H         -0.5419651003        2.0201640290        1.6706186300
 H         -0.5045290921        1.2698323111        0.1673208112
 N          0.0091538706       -1.1104711330        1.0242950252
 H         -0.1953048576       -1.1167963009        0.0350578467
 H         -0.0087981522       -2.0304706927        1.4469168841
 C         -3.9410425410       -1.3401182408        0.2127625542
 O         -5.1452133338       -1.4585098237        0.3872145520
 N         -3.4066454490       -1.3499323990       -1.0472980124
 H         -3.9733490209       -1.6090793530       -1.8276625881
 H         -2.4114437721       -1.4084538122       -1.2190972081
 N         -3.0921107479       -1.1828881368        1.2724816446
 H         -2.0883526229       -1.0981821613        1.1671502628
 H         -3.4378426422       -1.1267649949        2.2112782726
  61
        -11.16506732
 O         -0.6727477923       -1.2777829769       -1.6356505984
 C          1.1352346903        3.8632340825       -0.6483866147
 H          0.1106728000        3.7710724024       -0.9557083383
 H          1.8433882009        3.2267154254       -1.1436344589
 C          1.5020164000        4.7136662691        0.2811193032
 H          2.5274144189        4.8155984997        0.5845890725
 H          0.7914323051        5.3492682860        0.7752548021
 N         -0.0863136315       -3.8945953022        2.1035376653
 C          0.0733874930       -4.5509329658        0.7986684493
 H         -0.6112806455       -4.1158180420        0.0715896417
 H         -0.1282731631       -5.6177196330        0.8798600652
 H          1.0892900403       -4.4133424229        0.4320268527
 C          0.9086830915       -4.2841368585        3.1291914516
 H          1.9171606575       -4.1213588336        2.7530268447
 H          0.7960865289       -5.3351208006        3.3897274176
 H          0.7754723444       -3.6814341018        4.0258144041
 C         -1.4706512629       -4.0101775660        2.5828974257
 H         -2.1640740556       -3.6454579293        1.8265775790
 H         -1.6047733029       -3.4143840787        3.4843444271
 H         -1.7123969876       -5.0477278852        2.8077398961
 H         -0.5463460594       -2.0698568814       -2.1833715062
 C         -1.9948766664        2.3078101448       -1.5649776943
 O         -1.9206616814        3.5156182980       -1.7306644266
 N         -0.9462369253        1.4775128911       -1.8481032389
 H         -0.1827243657        1.7698597088       -2.4327941513
 H         -1.0464691194        0.4770705570       -1.8408015562
 N         -3.1266861240        1.7247986878       -1.0687101837
 H         -3.2298591279        0.7157119684       -1.0162504773
 H         -3.9580000121        2.2602924798       -0.9069294913
 C          3.5812697267        0.4317802027        0.6551247775
 O          4.7281388364        0.6153171820        0.2741306679
 N          2.7807349717        1.4817290081        1.0181594129
 H          3.0885086427        2.4257893334        0.8866965260
 H          1.7732558660        1.3698418512        1.1004819729
 N          3.0212135119       -0.8158144575        0.6700543387
 H          2.0364894610       -0.9537985122        0.8898954061
 H          3.5541733205       -1.6328498649        0.4363655464
 C          2.1792345851        1.1784142987       -2.6506295623
 O          1.4604381949        1.7253000639       -3.4735401013
 N          3.3693687342        1.7363325552       -2.2686404586
 H          3.6785292746        2.6117251095       -2.6481581895
 H          3.9021700755        1.3655796114       -1.4906688832
 N          1.8219647900        0.0083759977       -2.0309829078
 H          2.2822271746       -0.2734055589       -1.1762747649
 H          0.9039316211       -0.4006236416       -2.1133129621
 C         -0.1045586661        0.0210294519        1.7933623424
 O         -0.0660239814       -0.0417846792        3.0129786784
 N         -0.2531976941        1.2240567010        1.1509358564
 H         -0.5529453277        2.0243350134        1.6726362031
 H         -0.5113009269        1.2733447273        0.1698322317
 N          0.0024430886       -1.1051463224        1.0266387973
 H         -0.2007884824       -1.1118905139        0.0372410236
 H         -0.0098131392       -2.0256399853        1.4480621071
 C         -3.9491787254       -1.3342499448        0.2070130357
 O         -5.1547143869       -1.4414742122        0.3790690771
 N         -3.4124884468       -1.3509768245       -1.0517847750
 H         -3.9795509004       -1.6038653924       -1.8340177375
 H         -2.4170413745       -1.4104955038       -1.2214528587
 N         -3.1014174998       -1.1822555727        1.2684322399
 H         -2.0973438830       -1.0982013905        1.1652573439
 H         -3.4491875846       -1.1198524141        2.2060271224
