53
 energy: -7.320585245423 gnorm: 0.000867429186 xtb: 6.6.1 (unknown-commit)
O            1.81217850307883       -1.07094217747686       -0.36705864188749
C            1.80939336629701        0.24074602458525        0.13344656872980
H            1.99123214894430        0.17675688735126        1.21146561439082
H            2.65409374606604        0.79158428125281       -0.30258900874939
C            0.50020849649919        0.96128276023746       -0.14127321015554
H            0.46482164684967        1.28900954491037       -1.18022986172978
H            0.41644299039861        1.86403430155847        0.46556871459062
N           -0.74556670317243        0.11264966310527        0.07851843889002
C           -0.91338480141249       -0.86097222444582       -1.06738981197668
H           -1.00349268508462       -0.32168649090102       -2.00734092121577
H           -1.80976587669780       -1.45792732184476       -0.91751937990775
H           -0.05338682210137       -1.52232919693386       -1.12474289374489
C           -1.95205701634970        1.03429134903513        0.10158855016181
H           -2.00826137798149        1.59988880126609       -0.82588439142728
H           -1.88001688606442        1.73268455437333        0.93074640320498
H           -2.86212156292843        0.45046844596121        0.21347795438554
C           -0.67647496052851       -0.64608110267923        1.38499156304647
H           -0.52947293327230        0.04183445564302        2.21306701183404
H            0.14939109737495       -1.35160449877960        1.36427450880712
H           -1.60036640963734       -1.19707835886780        1.54424103253715
H            2.69280693655124       -1.49265405252923       -0.26685616105543
C            1.92687092378095        1.42644955281694        3.33585757084560
O            0.71976175252658        1.34326082077151        3.16435011496559
N            2.54332922840104        0.77518321174482        4.36829997606948
H            2.00721720800601        0.27979566580783        5.05545203791704
H            3.51798219597672        0.89355995228007        4.58090508117022
N            2.69364763972209        2.17850932875895        2.48677811905257
H            3.65388759700715        2.39255543629887        2.67912525774130
H            2.24774477739195        2.77314296785629        1.79995001361330
C           -4.48736342708308       -2.15705334428060        0.50991227398667
O           -3.41378072382252       -1.57513186316005        0.49075167091337
N           -5.57766307127624       -1.60403732823943        1.12577339049792
H           -5.51579775923343       -0.72450422638093        1.60322972577457
H           -6.46643700367519       -2.06908893625784        1.18060849720108
N           -4.63640339860262       -3.38205750370644       -0.08266065456978
H           -5.50091867797599       -3.89351284101719       -0.06683946274948
H           -3.86407374295281       -3.84529113420947       -0.52341271321281
C            0.32083104036700        4.38764036090641        1.06517942547790
O            1.24711233642964        3.79422699647787        0.53248468818872
N           -0.35277134095995        3.82273461604710        2.11463927302482
H           -0.01293433686593        2.96556236830202        2.53189728735472
H           -1.01943070354625        4.33337446649326        2.66264054318978
N           -0.06902481261649        5.62514343026706        0.63345224158475
H           -0.80951240152137        6.14590347734798        1.06908934828790
H            0.42496636905738        6.10237826100979       -0.09741736481771
C            0.09112570838427        2.85247526349294       -2.98270261539574
O           -0.80673202259343        2.34148832729903       -2.33044813866546
N            0.04611925074019        2.86945185865400       -4.34980281646084
H           -0.75002257347597        2.51288086311228       -4.84389897921931
H            0.74492750261596        3.32057186470614       -4.91302952254844
N            1.17508612091479        3.41806332839448       -2.36551313864418
H            1.86345879354887        3.93805976945600       -2.87605203429266
H            1.17775322616564        3.57933043545171       -1.36585646763219
