          29
 SCF done     -15.68480296
O              1.8328102175           -0.8798951438           -0.6244058340
C              1.8059213409            0.3099025530            0.1264090427
H              1.9976203657            0.0463075229            1.1754177531
H              2.6389264457            0.9505374944           -0.2004622572
C              0.4770489430            1.0437270998           -0.0131149167
H              0.4261923856            1.5220599577           -0.9938274079
H              0.4072149917            1.8458697072            0.7258018107
N             -0.7580814498            0.1429212358            0.1149226872
C             -0.8957004109           -0.7390970977           -1.1121364449
H             -0.9987225391           -0.1330860216           -2.0090548792
H             -1.7695998208           -1.3805421956           -1.0263281844
H             -0.0158463509           -1.3678503117           -1.2252817695
C             -1.9929941422            1.0248149342            0.2178251477
H             -2.0768165071            1.6670881433           -0.6557394555
H             -1.9418123772            1.6536506525            1.1034778958
H             -2.8919008366            0.4163414595            0.2827089784
C             -0.6644347503           -0.7266729993            1.3525697871
H             -0.5242680282           -0.1137875269            2.2396173270
H              0.1718368869           -1.4162875671            1.2666561240
H             -1.5737348119           -1.3098020402            1.4779444181
H              2.7281853542           -1.2754231842           -0.6572964314
C              1.7688609172            1.0058543248            3.5950634423
O              0.8914191806            1.2017096651            2.7689600691
N              1.6283050430            0.0416199626            4.5572669106
H              0.7559941254           -0.4330452706            4.6983552062
H              2.3057992910           -0.0913960884            5.2844493904
N              2.9268138028            1.7382440859            3.5735432907
H              3.6035362181            1.6836580697            4.3120660071
H              3.0053395508            2.5543052291            2.9959951160
          37
 SCF done     -15.70262765
O              1.8328102175           -0.8798951438           -0.6244058340
C              1.8059213409            0.3099025529            0.1264090426
H              1.9976203657            0.0463075229            1.1754177531
H              2.6389264457            0.9505374944           -0.2004622572
C              0.4770489430            1.0437270998           -0.0131149167
H              0.4261923856            1.5220599577           -0.9938274079
H              0.4072149917            1.8458697072            0.7258018107
N             -0.7580814498            0.1429212358            0.1149226872
C             -0.8957004109           -0.7390970977           -1.1121364449
H             -0.9987225391           -0.1330860216           -2.0090548792
H             -1.7695998208           -1.3805421956           -1.0263281844
H             -0.0158463509           -1.3678503117           -1.2252817695
C             -1.9929941422            1.0248149342            0.2178251477
H             -2.0768165071            1.6670881433           -0.6557394555
H             -1.9418123772            1.6536506525            1.1034778958
H             -2.8919008366            0.4163414595            0.2827089784
C             -0.6644347503           -0.7266729993            1.3525697871
H             -0.5242680282           -0.1137875269            2.2396173270
H              0.1718368869           -1.4162875671            1.2666561240
H             -1.5737348119           -1.3098020402            1.4779444181
H              2.7281853542           -1.2754231842           -0.6572964314
C              2.1493706162            1.2192617134            3.4473732550
O              1.1156661595            1.0998585739            2.8080630257
N              2.5038390228            0.2898722311            4.3874248202
H              1.8749282768           -0.4460247654            4.6483344331
H              3.3068761935            0.3991040453            4.9795704805
N              2.9903852216            2.2791114107            3.2336183452
H              3.7871156985            2.4581007801            3.8176168083
H              2.7127265059            3.0477466727            2.6530402447
C             -4.5308464811           -1.7943035952            0.2530590312
O             -3.3485174492           -1.5599999635            0.4471363528
N             -5.5059479283           -1.0226812093            0.8286935120
H             -5.2796240246           -0.3196517930            1.5068487597
H             -6.4826583733           -1.2417327546            0.7513249086
N             -4.9195499245           -2.8325596307           -0.5491177532
H             -5.8830811821           -3.0751792320           -0.6909765983
H             -4.2480832426           -3.4670554954           -0.9389024013
          45
 SCF done     -18.70471531
O              1.8328102176           -0.8798951438           -0.6244058341
C              1.8059213411            0.3099025531            0.1264090429
H              1.9976203657            0.0463075230            1.1754177531
H              2.6389264456            0.9505374944           -0.2004622571
C              0.4770489429            1.0437270995           -0.0131149166
H              0.4261923856            1.5220599577           -0.9938274079
H              0.4072149917            1.8458697072            0.7258018108
N             -0.7580814498            0.1429212357            0.1149226872
C             -0.8957004109           -0.7390970979           -1.1121364450
H             -0.9987225390           -0.1330860216           -2.0090548792
H             -1.7695998208           -1.3805421957           -1.0263281845
H             -0.0158463509           -1.3678503117           -1.2252817695
C             -1.9929941422            1.0248149343            0.2178251477
H             -2.0768165071            1.6670881433           -0.6557394555
H             -1.9418123772            1.6536506525            1.1034778958
H             -2.8919008366            0.4163414595            0.2827089784
C             -0.6644347502           -0.7266729993            1.3525697870
H             -0.5242680281           -0.1137875269            2.2396173269
H              0.1718368869           -1.4162875672            1.2666561240
H             -1.5737348119           -1.3098020402            1.4779444181
H              2.7281853542           -1.2754231842           -0.6572964313
C              2.0035077584            1.0025651157            3.5624325016
O              0.8019187183            0.8713218783            3.3824866619
N              2.6648668985            0.2681979291            4.5073628814
H              2.1643674758           -0.3356657439            5.1316614852
H              3.6334585994            0.4156966255            4.7286359355
N              2.7209164780            1.8950280059            2.8116455619
H              3.6632060813            2.1500238910            3.0388421500
H              2.2344351697            2.5466307821            2.2100671255
C             -4.4646457163           -2.0635758929            0.2957700708
O             -3.3453486462           -1.5881733286            0.4041492894
N             -5.5306912047           -1.5148813306            0.9569537614
H             -5.4111317377           -0.7519828326            1.5965054673
H             -6.4513517253           -1.9146548840            0.9272706111
N             -4.6901919367           -3.1599514438           -0.4918764324
H             -5.5925605592           -3.5918929984           -0.5756444747
H             -3.9379600725           -3.6305423890           -0.9587312361
C              0.1318448391            4.0566225182            1.6001028725
O              1.1607632363            3.6279984075            1.0977595188
N             -0.5133658952            3.3367322886            2.5704139115
H             -0.0821662418            2.4995125062            2.9388591987
H             -1.2391515297            3.7321508000            3.1377308130
N             -0.4076163067            5.2454025344            1.1977786198
H             -1.2337714521            5.6371512780            1.6128199200
H              0.0579816674            5.8152074349            0.5171983778
          53
 SCF done     -16.36232068
O              1.8328102176           -0.8798951437           -0.6244058341
C              1.8059213410            0.3099025532            0.1264090429
H              1.9976203657            0.0463075230            1.1754177531
H              2.6389264456            0.9505374944           -0.2004622572
C              0.4770489429            1.0437270996           -0.0131149166
H              0.4261923856            1.5220599577           -0.9938274079
H              0.4072149917            1.8458697073            0.7258018108
N             -0.7580814498            0.1429212358            0.1149226872
C             -0.8957004109           -0.7390970979           -1.1121364450
H             -0.9987225391           -0.1330860215           -2.0090548792
H             -1.7695998209           -1.3805421957           -1.0263281845
H             -0.0158463509           -1.3678503116           -1.2252817695
C             -1.9929941422            1.0248149344            0.2178251477
H             -2.0768165071            1.6670881434           -0.6557394555
H             -1.9418123772            1.6536506525            1.1034778958
H             -2.8919008366            0.4163414596            0.2827089784
C             -0.6644347503           -0.7266729993            1.3525697870
H             -0.5242680282           -0.1137875269            2.2396173270
H              0.1718368869           -1.4162875671            1.2666561240
H             -1.5737348120           -1.3098020402            1.4779444181
H              2.7281853542           -1.2754231842           -0.6572964314
C              1.9536031023            1.4303760516            3.3412176816
O              0.7550812038            1.3240038862            3.1268539874
N              2.5537914211            0.7567239547            4.3688515639
H              2.0091336031            0.2277621728            5.0235644886
H              3.5163108718            0.8969216446            4.6197678771
N              2.7295387285            2.2312896745            2.5471586666
H              3.6824058712            2.4504638958            2.7686666320
H              2.2956092341            2.8239112384            1.8510430506
C             -4.4773113948           -2.1258038077            0.4887408773
O             -3.3794532987           -1.5922293517            0.4587752605
N             -5.5381606463           -1.5219551507            1.1081705241
H             -5.4353291965           -0.6444069109            1.5821729724
H             -6.4455798701           -1.9477171798            1.1716890108
N             -4.6816213055           -3.3458954918           -0.0963676360
H             -5.5670245006           -3.8190480454           -0.0730466490
H             -3.9320312150           -3.8421848678           -0.5403126781
C              0.3234748508            4.3603760953            1.0273505552
O              1.3142347974            3.8179013946            0.5612978096
N             -0.3248734368            3.8184538704            2.1029492992
H              0.0264518099            2.9783795589            2.5434379182
H             -1.0770276425            4.2836185242            2.5755252435
N             -0.1748814833            5.5086605614            0.4800286088
H             -0.9991176287            5.9637830016            0.8286878285
H              0.2695189422            5.9481838456           -0.3042285044
C              0.0941070390            2.8048613105           -2.9047793267
O             -0.8564147111            2.4377938868           -2.2292885492
N              0.0692481096            2.7047663046           -4.2684616205
H             -0.7522520474            2.3874621349           -4.7477468512
H              0.8167233423            3.0353609811           -4.8524354973
N              1.2202105753            3.3146014903           -2.3145564768
H              1.9705367977            3.7093708405           -2.8495644433
H              1.2344097430            3.5384589050           -1.3276203070
