50
 energy: -7.413713506965 gnorm: 0.000332342207 xtb: 6.6.1 (unknown-commit)
C            0.50708478585434        0.17910037204950        0.19193130477666
O            0.62834790153978       -1.03599823020147        0.18293045097478
N           -0.62312651413546        0.76766642844628        0.69093943920464
H           -1.37337969404869        0.21310385882842        1.06059262697102
H           -0.75924624104890        1.76500842313328        0.70940838991559
N            1.49417878865635        0.98202398993334       -0.30877308896811
H            1.43572909781568        1.98541522816938       -0.30971119088389
H            2.33992821763713        0.58818070313198       -0.67726871697085
O           -0.97096327350380       -3.45355027186779        0.62288107628952
C           -1.24600328457567       -3.59022834008873        1.99732498226144
H           -1.86593542065969       -4.48508105915098        2.11548244878648
H           -0.30016591262786       -3.80997276854269        2.51112517311507
C           -1.92917686760707       -2.37052920391628        2.59991458337996
H           -1.32445495131540       -1.48453598319702        2.40239079974206
H           -1.98330653765710       -2.46297184104108        3.68794118558962
N           -3.34778612624713       -2.11143231612286        2.08713299572564
C           -3.39803617216076       -1.99835301098930        0.58178238951378
H           -2.76698797648185       -1.18478992936850        0.23711767889993
H           -4.41582652993374       -1.80951597278347        0.24801609307546
H           -3.05194015108484       -2.92254921941118        0.12601036009412
C           -3.85306186700812       -0.81946723527577        2.69736410580104
H           -3.22415327518743        0.01739378756335        2.40308888433494
H           -3.85070907980490       -0.88744564066523        3.78292520254155
H           -4.86944569585835       -0.61695052037954        2.36711186655436
C           -4.26673308943276       -3.23468098662620        2.51918509605869
H           -4.22097198219343       -3.36986392191944        3.59741447826488
H           -3.98692830435820       -4.16829269575772        2.03822506261850
H           -5.29424709464596       -3.00758514079733        2.24392021619359
H           -0.42042632541164       -2.64080574717865        0.47533744926139
O            1.13640440327334       -2.14497568388909       -2.49824942483627
C           -0.00399836559821       -2.91573606980338       -2.79976202669202
H            0.08720408605357       -3.24231261628263       -3.84089430562041
H            0.04013421017256       -3.82944016302330       -2.19099944051650
C           -1.31234825465799       -2.17100601177686       -2.57082724892978
H           -1.33935747146616       -1.80029367096337       -1.54534010099091
H           -2.16170713650832       -2.85129614149364       -2.67485566834474
N           -1.55139717313111       -0.98021841343957       -3.49838211759283
C           -0.45420357451509        0.04802340034912       -3.36437921380124
H           -0.37847908062164        0.38776512185581       -2.33439812937024
H           -0.65793211482197        0.90728571865583       -3.99943293376108
H            0.49953083498676       -0.38131797640021       -3.66022156916086
C           -2.86536807548359       -0.33515461179931       -3.10562381837797
H           -2.82295369453507        0.01703260843609       -2.07724703471409
H           -3.68083811659717       -1.04958281075405       -3.19382791476285
H           -3.07906184225828        0.51403926729532       -3.75092090841513
C           -1.64087015539621       -1.43531430929461       -4.93767760048382
H           -2.39608715550825       -2.21078343216122       -5.04387503187228
H           -0.68593585753640       -1.82835018778630       -5.27670366162205
H           -1.91065331834697       -0.60032339294593       -5.58045574970868
H            1.02554435881928       -1.75474911807348       -1.59293291989828
