          29
 SCF done      -8.95935206
C              0.3218488770            1.0406492628           -0.1263162102
O              0.7806522653           -0.0662684886           -0.3504993772
N             -0.8683220291            1.2088175707            0.5347878396
H             -1.2249419580            0.3990586997            1.0131448909
H             -1.0928618714            2.1017554328            0.9375844351
N              0.9339760414            2.1770443553           -0.5265337473
H              0.4508153980            3.0557308834           -0.4991858436
H              1.7122182813            2.0546397232           -1.1722251910
O              2.7685552723            1.0208668908           -2.2914067388
C              2.4798396422            0.8880820340           -3.6719131638
H              1.4007544963            1.0360523466           -3.8476933958
H              3.0032539183            1.7404593746           -4.1451140579
C              2.9105482695           -0.4073268534           -4.2340191956
H              3.8569807154           -0.8028863886           -3.9189576893
H              2.5680125467           -0.6570926359           -5.2181844203
N              1.5904072771           -2.1895759986           -3.1686846706
C              2.1635983323           -2.5973368476           -1.9029439662
H              3.2427820401           -2.6971989420           -2.0156406819
H              1.7580819478           -3.5620091282           -1.5614599606
H              1.9466676998           -1.8487204502           -1.1453167686
C              1.7516900740           -3.2162950809           -4.1709644079
H              2.8117965888           -3.4193565319           -4.3045184027
H              1.3360026290           -2.8620480684           -5.1108511559
H              1.2436826129           -4.1534421428           -3.8930156692
C              0.2076077706           -1.7858313401           -3.0411687114
H             -0.1215271181           -1.3359012209           -3.9777196790
H              0.1212634863           -1.0557140780           -2.2405802044
H             -0.4528806749           -2.6356732685           -2.8105283249
H              2.4378800026            0.2236397240           -1.8498356295
          50
 SCF done     -22.81581676
C              0.1245180722            0.6324493534            0.0167629441
O              0.3548606234           -0.4963946663           -0.4333975183
N             -0.3884244962            0.8288905495            1.2505507920
H             -0.4269654771            0.0392220508            1.8714287801
H             -0.2691605793            1.7492436373            1.6606624494
N              0.2862643772            1.7514366142           -0.7231020945
H              0.3014637812            2.6359343283           -0.2362272936
H              0.8181665733            1.6673370769           -1.5754822756
O              2.1092795967            0.0641951206           -2.4162597971
C              2.0051793614           -0.7121434406           -3.5793473318
H              0.9715907386           -0.7006740523           -3.9630647995
H              2.6246354996           -0.1907610191           -4.3305476333
C              2.4926934651           -2.1103130844           -3.4316598783
H              3.3210896103           -2.2462471430           -2.7584915970
H              2.5346780539           -2.6781805954           -4.3454141107
N              1.1027308486           -3.3658661019           -2.3916249191
C              1.5043675812           -3.4029364877           -0.9988048202
H              2.5547398796           -3.6787703052           -0.9260605629
H              0.9112507671           -4.1341627590           -0.4356318488
H              1.3538649912           -2.4215703495           -0.5564693565
C              1.2557903960           -4.6585676500           -3.0261175672
H              2.2963793347           -4.9731127943           -2.9684932729
H              0.9661139426           -4.5911052058           -4.0731137417
H              0.6319284490           -5.4205985040           -2.5408451523
C             -0.2403712562           -2.8448299021           -2.5443996751
H             -0.4544119138           -2.6877751796           -3.6004064822
H             -0.3226461091           -1.9019220096           -2.0082767672
H             -0.9846723690           -3.5400911810           -2.1366301403
H              1.5115345710           -0.3163196039           -1.7322041873
O              0.8248637657            3.4287853544            1.5340215636
C              0.5881093499            3.8530895730            2.9090817989
H              1.3523955478            4.6038959574            3.1512827408
H             -0.3888214816            4.3427471875            2.8619202887
C              0.5921119374            2.7549181246            3.8817404556
H             -0.2863533620            2.1552165133            4.0253589755
H              1.5241367228            2.3662895055            4.2475101560
N              3.3334749747            2.0766667028            1.2446537559
C              3.2285495261            0.7162801856            1.7382121733
H              2.7743198513            0.7302630083            2.7283953630
H              4.2066906080            0.2177132076            1.8065508243
H              2.5926323579            0.1409026138            1.0684127882
C              4.1691600481            2.8842142845            2.1148573089
H              3.7491098181            2.8860825973            3.1196176494
H              4.1885284792            3.9077492506            1.7424866307
H              5.2033321190            2.5118212722            2.1686536193
C              3.8304092661            2.1049070056           -0.1200555214
H              3.7799014056            3.1267309541           -0.4939623338
H              3.2133151283            1.4679467961           -0.7504268581
H              4.8716373557            1.7576690189           -0.1886585119
H              1.7032300151            2.9958511854            1.4965826624
          71
 SCF done     -81.69290603
C             -0.5163176860           -0.3390327029            0.0709848019
O             -0.7128534748           -1.4165089836           -0.5806424838
N             -0.2486621822           -0.2354862044            1.3416412194
H             -0.0437185972           -1.1426934590            1.7579566093
H              0.7876546900            1.3610210366            2.0144194625
N             -0.7907508448            0.8651715391           -0.5857060282
H             -0.2843595965            1.6700600633           -0.2275665588
H             -0.7105252232            0.7784873691           -1.5900083287
O              0.3520897370           -0.7057914032           -2.9651619454
C              0.9653448680           -1.6678085828           -3.7828399431
H              0.2188297073           -2.4068336692           -4.1295818421
H              1.2825151802           -1.1094797190           -4.6859439882
C              2.1144700903           -2.3593460397           -3.1627344379
H              2.6127482627           -1.9000946981           -2.3339518426
H              2.6437339317           -3.0898449449           -3.7418865605
N              1.2663930113           -4.2274074758           -1.6109319267
C              1.4787050169           -3.7370286164           -0.2684327458
H              2.5271755957           -3.4720172036           -0.1386742502
H              1.2076543045           -4.4818801676            0.4986473432
H              0.8660085786           -2.8493229751           -0.1280326482
C              2.0594773794           -5.3995635169           -1.8925636480
H              3.1129155479           -5.1644449770           -1.7456294508
H              1.9099586973           -5.6954887281           -2.9301267712
H              1.7980403810           -6.2537365002           -1.2443926582
C             -0.1367211476           -4.4407720802           -1.8806087519
H             -0.2693593245           -4.6856719552           -2.9337946105
H             -0.6777002224           -3.5245810394           -1.6571414175
H             -0.5607425521           -5.2595593208           -1.2749115604
H              0.0221649199           -1.1465212250           -2.1461431658
O              0.8949786510            3.1649498916            0.1549917883
C              0.9414419073            3.4543657301            1.5297602114
H              1.6413268281            4.2858108599            1.7145364735
H             -0.0641421887            3.7991219848            1.7949696664
C              1.3243097135            2.2453621919            2.3741314603
H              1.0784203683            2.4188999045            3.4189213838
H              2.3927245637            2.0583781615            2.2989782810
N              3.0563851970            1.5808421289           -0.7256196298
C              3.1218299362            0.2483332172           -0.1546931630
H              3.3290512550            0.3174943228            0.9122577721
H              3.9028887510           -0.3686583735           -0.6230530531
H              2.1598023027           -0.2412190604           -0.2864206793
C              4.2799109336            2.3201042127           -0.4818785146
H              4.4520480016            2.3939039028            0.5920900839
H              4.1773248867            3.3257897427           -0.8885792305
H              5.1599377515            1.8454918500           -0.9425638712
C              2.7598972854            1.5182054720           -2.1476058436
H              2.5870015000            2.5269195065           -2.5207501647
H              1.8614674697            0.9245819569           -2.3067155784
H              3.5812678142            1.0643871273           -2.7208020176
H              1.6906851978            2.6380421132           -0.0878824748
O             -3.3243133921           -1.4964483441           -0.9880436160
C             -3.8437275083           -1.9263809896            0.2224065820
H             -4.9338297578           -1.8188403655            0.1583614517
H             -3.6282137797           -2.9950540226            0.3886037303
C             -3.2751804704           -1.1971425982            1.4506903431
H             -2.1867286594           -1.2131174768            1.3549265332
H             -3.5532439627           -1.7414497494            2.3552939597
N             -3.6716615110            0.2299442360            1.6392620978
C             -3.6206804782            0.9924579195            0.3780913331
H             -2.5909587888            0.9951642721           -0.0207081883
H             -3.9308112215            2.0182618114            0.5662185377
H             -4.2727273677            0.5435205227           -0.3655857146
C             -2.7140315581            0.8338844011            2.5868771669
H             -1.6827002714            0.6791279003            2.2033452831
H             -2.8007807483            0.3553527109            3.5607225110
H             -2.9113946647            1.8979098404            2.6893517244
C             -5.0344816983            0.3039497115            2.1861071541
H             -5.0921385063           -0.2267709035            3.1357526514
H             -5.7409913093           -0.1425898577            1.4888582901
H             -5.3127952438            1.3440621667            2.3489310265
H             -2.3199095218           -1.5150243971           -0.9469672097
          92
 SCF done     -66.23830747
C              0.5347031894            0.2435427935           -0.7443140233
O              0.1719778138           -0.6933324598           -1.5458623394
N              1.2701039889            0.1139436150            0.3121500557
H              1.5089037369           -0.8616763327            0.4729447294
H              1.5241407892            1.7062157843            1.5907966277
N              0.0183519713            1.5045685048           -0.9959974265
H              0.5004842535            2.2888968464           -0.5738473418
H             -0.2746115332            1.6474103477           -1.9488188629
O              1.4608254541           -1.5960076567           -3.5360234820
C              0.8171287553           -2.8238073287           -3.6075893876
H             -0.2010367491           -2.7630434834           -3.2124628990
H              0.7534505865           -3.1194496243           -4.6641364435
C              1.5900913016           -3.9707548166           -2.9103004590
H              2.5701342981           -4.0597483074           -3.3848419038
H              1.0277670299           -4.8916345720           -3.0792967397
N              1.8172426234           -3.8296497928           -1.4451327047
C              2.8436809862           -2.8082699080           -1.1708563073
H              3.7818367388           -3.0859601646           -1.6482624428
H              2.9899233077           -2.7263602730           -0.0907753346
H              2.5188899912           -1.8500747477           -1.5716285419
C              2.2958832690           -5.1184342970           -0.9191906106
H              3.1762975357           -5.4502278909           -1.4683686698
H              1.5164145714           -5.8736735914           -1.0084333710
H              2.5591379597           -5.0001536201            0.1303530119
C              0.5736244273           -3.4597082452           -0.7483913939
H             -0.2413442850           -4.1123061288           -1.0498340656
H              0.3096847263           -2.4138336615           -0.9906609163
H              0.7140996096           -3.5332594456            0.3266140800
H              0.9889584331           -1.0717764478           -2.8097876947
O              1.5316534629            3.8369451663            0.0969474399
C              1.3341591226            3.8505165686            1.4912896855
H              1.8280769970            4.7342363252            1.9280012677
H              0.2549033575            3.9636856125            1.6350685991
C              1.8270329231            2.5807555759            2.1740317011
H              1.4156186864            2.5084555884            3.1774807816
H              2.9128330673            2.5885045228            2.2433310799
N              3.9298946701            2.6567904735           -0.9264568325
C              4.1987496176            1.4024416398           -0.2484386985
H              4.6500708858            1.6057755836            0.7216719648
H              4.8816183665            0.7552617152           -0.8204806111
H              3.2502178919            0.8835880134           -0.0920709815
C              5.1091868710            3.4939337544           -1.0063174090
H              5.4751581454            3.6972879508           -0.0001953380
H              4.8440933349            4.4395332206           -1.4778077157
H              5.9219575663            3.0294643907           -1.5867399020
C              3.3664644435            2.4164862262           -2.2418605734
H              3.0661514125            3.3654232580           -2.6833796590
H              2.4880038598            1.7843881831           -2.1392239588
H              4.0782526970            1.9188984670           -2.9179649838
H              2.4244539457            3.4855683223           -0.0989835701
O             -2.4829226805           -1.7466397223           -1.3137240473
C             -2.6676071325           -2.2558380227            0.0255535862
H             -3.7554246503           -2.2960056757            0.1616289919
H             -2.3145973102           -3.3027878155            0.0322095670
C             -1.9784308841           -1.5712969914            1.1717263524
H             -0.9460393308           -1.3708699224            0.8511249877
H             -1.9477524032           -2.8345843540            2.6916788558
N             -2.5524965258           -0.2006227956            1.4839669220
C             -2.8244020665            0.6697869590            0.3202769406
H             -1.8844174167            0.9050194295           -0.1797061094
H             -3.2944535172            1.6003800702            0.6440762205
H             -3.4770799023            0.1535567952           -0.3794142262
C             -1.5802908011            0.4806628264            2.3498636704
H             -0.6407579319            0.6026690887            1.8112386948
H             -1.4059343465           -0.1244398173            3.2380415325
H             -1.9556274425            1.4616873377            2.6416418462
C             -3.8004057858           -0.3853440759            2.2343399487
H             -3.5984321502           -1.0071410885            3.1026193864
H             -4.5333203825           -0.8875721122            1.6073927623
H             -4.2024361183            0.5768563807            2.5554258235
H             -1.5980560740           -1.3375714824           -1.3617428510
O             -1.0536321107           -1.6279492693            4.8605325710
C             -1.9219672619           -2.7448806463            4.8721195193
H             -1.6688486401           -3.3931646827            5.7261259750
H             -2.9206042716           -2.3359499973            5.0470842221
C             -1.8802183210           -3.5313082814            3.5711914315
H             -2.7066035929           -4.2349307510            3.5346495665
H             -0.9489125035           -4.0923271060            3.5035830604
N              3.1687642510           -2.8516482778            2.0670456037
C              3.8595747794           -1.5739638291            2.1734107659
H              4.7538840928           -1.5975177131            1.5516981988
H              4.1563072857           -1.3502537881            3.2071583025
H              3.2057807210           -0.7802502460            1.8202946389
C              4.0246817838           -3.9301467512            2.5290196078
H              4.9169948483           -3.9717893831            1.9045598821
H              3.4944165506           -4.8800037977            2.4501947204
H              4.3390896440           -3.7998553445            3.5744993475
C              1.9266521276           -2.8151031906            2.8227492499
H              1.4182843422           -3.7753443000            2.7284774208
H              1.2855749688           -2.0323095166            2.4204305601
H              2.0998819107           -2.6168413318            3.8905892643
H             -0.2183478901           -1.9107093878            4.4724194321
