21
 energy: -24.421107940738 gnorm: 0.000023905097 xtb: 6.6.1 (unknown-commit)
O            0.33241412766785       -0.70908721555963       -1.95629121278688
C           -0.40493997618067       -1.82272686292826       -2.40352729188663
H            0.22331960520888       -2.72373686566163       -2.40490675164452
H           -1.26527937044093       -2.01677966289913       -1.75185315895838
C           -0.97637798090653       -1.55591165378694       -3.80175794161911
H           -1.73907546369337       -0.77866827976199       -3.72690747544273
H           -1.44851340685521       -2.47982632897353       -4.14088164686902
N            0.00704989581906       -1.11438710141480       -4.83593433634605
C            1.26369743177192       -1.87844440789466       -4.74277949479394
H            1.91050486595027       -1.62678008802365       -5.58122295557019
H            1.05960140503555       -2.94735522809104       -4.76874529255839
H            1.78098128579219       -1.62722094046892       -3.81937787653030
C            0.30350987194184        0.32326789372552       -4.67146944933230
H            0.64610130875811        0.51038591479013       -3.65578984891580
H           -0.59132839955778        0.91404466933966       -4.85667657940233
H            1.07548973090799        0.62633725369445       -5.37561968508348
C           -0.59003686853575       -1.32692689476307       -6.16828700124495
H            0.06172753373198       -0.91642874702654       -6.93766909610115
H           -1.55728935836991       -0.83144291055479       -6.23285781158276
H           -0.72694099944299       -2.38988518612380       -6.36016235644467
H            0.46314476139752       -0.75975735761738       -1.00380273688643
