  21
         -3.00236408
 O          2.2302693442        0.5284852883       -0.0502002580
 C          1.6480758937       -0.7540653426        0.0037296790
 H          1.5606367987       -1.1103046009       -1.0282573920
 H          2.3599292424       -1.4328252934        0.4929380563
 C          0.2951134912       -0.7807326315        0.7006751557
 H          0.3983715002       -0.3925656899        1.7160658344
 H         -0.0590292252       -1.8102878706        0.8003143506
 N         -0.8012935532        0.0225414722        0.0003411995
 C         -0.4507843819        1.4903080303       -0.0527628454
 H         -0.2771703601        1.8752855873        0.9493595298
 H         -1.2592566218        2.0576747655       -0.5082145452
 H          0.4495027803        1.6390165948       -0.6434058220
 C         -2.0834096965       -0.1402547677        0.7914963324
 H         -1.9503168121        0.2222532698        1.8083248278
 H         -2.3740225294       -1.1876123932        0.8321400280
 H         -2.8898323566        0.4232178617        0.3275756708
 C         -1.0293132539       -0.4885974958       -1.4047246852
 H         -1.2237687246       -1.5586063999       -1.3923779528
 H         -0.1601768917       -0.2972702171       -2.0287508888
 H         -1.8839186802        0.0127235892       -1.8534735192
 H          2.3503713867        0.8809935156        0.8621290611
