21
 energy: -24.420604780927 gnorm: 0.000025372339 xtb: 6.6.1 (unknown-commit)
O            0.33724329251302       -0.71607703763678       -1.95580718504124
C           -0.40817240554712       -1.82536618186007       -2.40069532658861
H            0.21561431821310       -2.72942804705672       -2.40771323448350
H           -1.26585886157376       -2.01633396100656       -1.74456171858419
C           -0.98592645136524       -1.55295341848616       -3.79365006916930
H           -1.73766658307937       -0.76595262794751       -3.71864985674654
H           -1.46671354097699       -2.47125463852478       -4.13488365497281
N            0.00632678104994       -1.11790715378557       -4.83725987266459
C            1.27550989012662       -1.87739566062358       -4.73937480050757
H            1.91929399244874       -1.62034343511883       -5.57785545171987
H            1.07675237323805       -2.94707109878155       -4.76458329417588
H            1.78565246086592       -1.61907768289132       -3.81451187335891
C            0.30093617390933        0.32042318763550       -4.67454855383450
H            0.64126297060087        0.50954945702259       -3.65843969366797
H           -0.59369915275609        0.91058658235667       -4.86278571050240
H            1.07427119099998        0.62360586708130       -5.37719563382768
C           -0.59279082579427       -1.32855781218258       -6.17798429352948
H            0.06163912817964       -0.91600536479871       -6.94331158693121
H           -1.55919975798569       -0.83208594059281       -6.23896506301122
H           -0.72878358665121       -2.39141083046012       -6.36975775382025
H            0.47206859358452       -0.76827420234239       -1.00398537286229
