  53
        -80.56296918
 O         -1.3900719986       -0.1085814957       -2.4648490631
 C         -0.0221664060        0.0145202815       -2.1859899258
 H          0.5096069718       -0.3499290667       -3.0672426107
 H          0.2504551291        1.0680791802       -2.0479767242
 C          0.3978764066       -0.7227256533       -0.9089243055
 H         -0.3840409738       -0.5656848289       -0.1627638804
 H          1.3439744732       -0.3160793184       -0.5447060165
 N          0.5834484564       -2.1944365599       -1.0250590558
 C          0.9003843339       -2.6936425299        0.3250869723
 H          1.8034131619       -2.1988815673        0.6787815477
 H          1.0621242473       -3.7690893556        0.2950667932
 H          0.0684466440       -2.4734995844        0.9917707113
 C          1.7124189485       -2.5088971316       -1.9128588571
 H          1.4963899436       -2.2060323581       -2.9338243722
 H          1.9030651450       -3.5802562108       -1.9025034495
 H          2.5946054802       -1.9808091842       -1.5501240504
 C         -0.6522776681       -2.8316189008       -1.5017871385
 H         -0.9601125874       -2.3997779546       -2.4511319730
 H         -1.4389160565       -2.6559433561       -0.7700563804
 H         -0.5002701535       -3.9027353692       -1.6184568709
 H         -1.8714961585        0.4175607363       -1.8013612857
 C          4.1648332374        0.2393578733        0.1726650801
 O          3.3349065295       -0.6479720538       -0.0069947175
 N          3.8423538734        1.4386400233        0.6988961700
 H          2.8568808650        1.6899830982        0.7934929866
 H          4.5114024194        2.1877181591        0.6969388450
 N          5.4738034341        0.0566756872       -0.1424549682
 H          6.1769735369        0.7224572787        0.1220383780
 H          5.7776595185       -0.8656645734       -0.3992589244
 C         -1.8573481415        2.8637798003       -0.7851468903
 O         -2.1316222223        1.6932054991       -0.4747317126
 N         -2.7244120602        3.6032553481       -1.5098620836
 H         -3.5844089774        3.1861524336       -1.8176799934
 H         -2.5177542850        4.5417184262       -1.7981642471
 N         -0.7000850074        3.4343356254       -0.4353788569
 H         -0.5101407696        4.3959587070       -0.6507894126
 H         -0.0227664977        2.9210017395        0.1397260107
 C         -3.1929988680       -1.5318040788        1.1669331134
 O         -1.9704571271       -1.6468607194        1.2323472000
 N         -3.7905243993       -0.4373261872        0.6603860304
 H         -3.2333343289        0.3101728450        0.2693754139
 H         -4.7883149264       -0.3820795341        0.5719319009
 N         -4.0181762303       -2.5275587809        1.5790454891
 H         -5.0109325659       -2.3957446967        1.6466987399
 H         -3.6162378468       -3.3059449722        2.0707628019
 C          0.5853860977        1.0860107681        1.8424929650
 O          1.0943618547        1.9437745008        1.1106937684
 N         -0.7432880260        0.8796958004        1.8857805849
 H         -1.2945649710        1.2782315178        1.1283259126
 H         -1.1011202728        0.0138277933        2.2588118399
 N          1.3455524317        0.3050787281        2.6437557954
 H          0.9234941622       -0.3026012311        3.3217550376
 H          2.3273082036        0.5034472724        2.7239299055
