  53
        -80.94062931
 O          1.3852294227       -0.1068586380        2.4634294074
 C          0.0177207087        0.0149908330        2.1820799290
 H         -0.5154637988       -0.3484622983        3.0629125287
 H         -0.2553271575        1.0681421453        2.0418496025
 C         -0.3996963399       -0.7243149591        0.9053940313
 H          0.3836017232       -0.5682991134        0.1604827399
 H         -1.3452502679       -0.3184684814        0.5388763888
 N         -0.5851405989       -2.1959057730        1.0236552968
 C          0.6501711401       -2.8321238732        1.5027120360
 H          1.4375830369       -2.6574663861        0.7715470481
 H          0.4982959870       -3.9031012696        1.6210330263
 H          0.9568187305       -2.3985556030        2.4516679447
 C         -0.9004257477       -2.6971052259       -0.3261191600
 H         -0.0678049793       -2.4776371266       -0.9921880226
 H         -1.8031700407       -2.2030360315       -0.6815077996
 H         -1.0619281252       -3.7725699005       -0.2947705656
 C         -1.7150890554       -2.5093479485        1.9106111469
 H         -1.4998597221       -2.2057785979        2.9315440699
 H         -1.9061184074       -3.5806622648        1.9008892848
 H         -2.5967406612       -1.9811953204        1.5466361376
 H          1.8674443022        0.4200371144        1.8011058024
 C          3.1953574139       -1.5317082900       -1.1614596215
 O          1.9730650596       -1.6484791739       -1.2288183861
 N          3.7907667020       -0.4341858877       -0.6589366668
 H          3.2323053901        0.3128818675       -0.2689108027
 H          4.7882067796       -0.3787792145       -0.5664979588
 N          4.0224978491       -2.5280624426       -1.5681343952
 H          5.0151960807       -2.3951731040       -1.6345881904
 H          3.6224077326       -3.3086703279       -2.0578506924
 C          1.8547651515        2.8669858318        0.7846480201
 O          2.1307720823        1.6964124971        0.4758403818
 N          2.7202895479        3.6084567133        1.5091865730
 H          3.5799266292        3.1923454553        1.8193405721
 H          2.5115593150        4.5465068676        1.7973566313
 N          0.6969476535        3.4356635801        0.4334794764
 H          0.5062497447        4.3976580948        0.6466077067
 H          0.0214416022        2.9214255949       -0.1429570261
 C         -0.5818849517        1.0821648188       -1.8437390212
 O         -1.0925644263        1.9420410462       -1.1156355303
 N          0.7471625771        0.8779183455       -1.8857494082
 H          1.2971439317        1.2798932368       -1.1292053860
 H          1.1063544977        0.0108378799       -2.2548066868
 N         -1.3404537000        0.2961464097       -2.6416164408
 H         -0.9168227918       -0.3125868569       -3.3177173679
 H         -2.3223454777        0.4931077384       -2.7237314560
 C         -4.1638152192        0.2409367346       -0.1741001617
 O         -3.3352458239       -0.6482580884        0.0027738148
 N         -5.4720352464        0.0614457448        0.1463617197
 H         -5.7770884540       -0.8607646516        0.4023225201
 H         -6.1746423007        0.7280072324       -0.1177926692
 N         -3.8403705117        1.4397240553       -0.7009076954
 H         -4.5078219614        2.1902370028       -0.6962737338
 H         -2.8546704175        1.6893482973       -0.7979569732
