50
 energy: -7.414417567521 gnorm: 0.000580049236 xtb: 6.6.1 (unknown-commit)
C            0.27247981582062        0.15867770225590        0.00182629208192
O            0.26182552495931       -1.02204254258244        0.31766879429408
N           -0.89445237353990        0.87193851966962       -0.08651101811904
H           -1.78834473268091        0.44178900374008        0.09607223341839
H           -0.92354083649139        1.83591511887903       -0.37249068720758
N            1.44853202212496        0.79556931906029       -0.28303986576824
H            1.49709991389089        1.76894161398543       -0.52946991662346
H            2.32421021903787        0.31121656525021       -0.21473298910805
O            0.43089137043198       -2.99798331908940       -1.84647381629441
C           -0.84857549461410       -3.10018026380764       -2.42878407846070
H           -0.75391173429092       -3.74438870940613       -3.30917388158060
H           -1.49383252005534       -3.64524086772625       -1.72717141134520
C           -1.45739541873151       -1.75480298564627       -2.80058172843179
H           -1.47883631625129       -1.11026436993721       -1.92040693941066
H           -2.49787438424741       -1.88028638197378       -3.11165452723763
N           -0.72640179763072       -1.00307895866183       -3.91313748152451
C            0.71341273034829       -0.73973241329912       -3.54371415600064
H            0.76818815113855       -0.17197341837651       -2.61849031114547
H            1.21078891392860       -0.17423756105859       -4.32851757759214
H            1.24267968580408       -1.67919077619441       -3.40666802893992
C           -1.42254340927491        0.32721037920155       -4.11839415722050
H           -1.39475380788906        0.91525632339209       -3.20351732422774
H           -2.46192622264887        0.17225042782867       -4.39909011915568
H           -0.93301936616987        0.89422717760989       -4.90715198012857
C           -0.77609733012167       -1.78447064607015       -5.20706832143528
H           -1.80470732101572       -2.02551428398386       -5.46559255946005
H           -0.21150491073193       -2.70912707381116       -5.12022184560978
H           -0.34490262551611       -1.19978670326609       -6.01664306459012
H            0.40434606401589       -2.33516157108119       -1.10889970232377
O           -2.61369242261909       -1.43835095584013        0.64192372207961
C           -2.96874533546315       -2.73043047490101        1.07724573143146
H           -4.00199924321372       -2.68106396118395        1.43695626976436
H           -2.98960596263363       -3.38638710313850        0.19686795401684
C           -2.04178832113646       -3.28806670975451        2.14896861575436
H           -1.01715475619729       -3.30528492107496        1.77115384056140
H           -2.30327169868433       -4.32570878051943        2.37284297332149
N           -2.03945962551431       -2.51377802781910        3.46743263408077
C           -1.55723819003556       -1.09623369225632        3.27070566422689
H           -0.57884373195176       -1.09239787253219        2.79568917321316
H           -1.48228951832354       -0.58383693550803        4.22716571262878
H           -2.25321677954717       -0.54696848285710        2.64229763414757
C           -1.09213901007380       -3.21410677468767        4.42073633657445
H           -0.08759448904357       -3.24035763218275        4.00444176106413
H           -1.42008421180154       -4.23548709694561        4.60043260580816
H           -1.05674618362847       -2.69101377571246        5.37377443630969
C           -3.42123751127988       -2.49345169867464        4.08101005554293
H           -3.80459402116045       -3.50584927635898        4.18617270127462
H           -4.10780349067408       -1.92178237317886        3.46191688265658
H           -3.38917605742027       -2.03211688365278        5.06553965954569
H           -1.62373479953787       -1.39584507195782        0.52664582314216
