53
 energy: -7.311544204022 gnorm: 0.000558130447 xtb: 6.6.1 (unknown-commit)
O            1.91370038219183       -0.94591853991009       -0.73327382594974
C            1.83966230137209        0.17623232985378        0.11068790404628
H            1.94556989412109       -0.17217280742531        1.14570510947057
H            2.69108495267331        0.83764545687550       -0.10087139173458
C            0.53556156048187        0.93399779695785       -0.04013448236868
H            0.49590928992424        1.40952894921154       -1.02022051211610
H            0.48830358732478        1.74330900274253        0.69080440375613
N           -0.71629303504433        0.07239658863449        0.10057338331257
C           -0.90909526797581       -0.74169670320776       -1.15626020631971
H           -1.00177128038549       -0.07313964532072       -2.00798391542192
H           -1.81112452328659       -1.34289544394260       -1.07563227718629
H           -0.05593155370294       -1.39604191227496       -1.31195519070206
C           -1.91260677270126        0.98972146004029        0.26834047370416
H           -1.97940411220638        1.67000604935544       -0.57688380691351
H           -1.81820561736456        1.57289160846268        1.18048473022897
H           -2.82558143527995        0.40154776707659        0.32089373300938
C           -0.62784754231383       -0.84750458282712        1.29825538524681
H           -0.42028401876543       -0.27242727827289        2.19731074429608
H            0.16866858295455       -1.57265083998943        1.15775107312540
H           -1.56491579938536       -1.38348294758314        1.42639143572680
H            2.78835329319245       -1.38608737641448       -0.66548071487626
C            1.74399423351140        1.52892712186967        3.62113090798426
O            1.29012772243583        0.67005222072380        2.88137921870204
N            1.90394902729065        1.29335187512826        4.95885472447653
H            1.68848255616117        0.39841055647294        5.35613451927104
H            2.31340739300059        1.96416040563333        5.58469360863551
N            2.10731901576588        2.75481935449109        3.13818181810229
H            2.44360931321115        3.49150242008340        3.73025955085329
H            1.97960046908157        2.99399222707387        2.16236220775546
C           -4.29284065438371       -2.50409937272082        0.46057937146758
O           -3.36243647298443       -1.72315798034039        0.33300061964156
N           -5.35714495282976       -2.20638940189936        1.26801408262853
H           -5.39757910017973       -1.34476606787310        1.77914554133837
H           -6.13371350500346       -2.83019459583417        1.39893197372640
N           -4.30099211589173       -3.70451515502470       -0.19718334839388
H           -5.04183286285497       -4.37557805301214       -0.09699913717749
H           -3.53743130181046       -3.98233416954388       -0.78466136268657
C           -1.37066340751806        2.19940409809156       -3.42569623639391
O           -0.80296111360022        2.31405595347220       -2.35066903310569
N           -2.46157176613997        2.96897134424678       -3.72633641980807
H           -2.79677778857159        3.66568124161160       -3.08773368692263
H           -2.92947342671195        2.92960251973468       -4.61442972405007
N           -0.92739603547599        1.30184522772479       -4.36052785176932
H           -1.31914786686669        1.24696158148381       -5.28347289271087
H           -0.07251931443630        0.79490304617112       -4.22709576456313
C            2.05157763823211        4.14676395036246       -0.55462734422330
O            1.71134385102022        3.41465217718829        0.36079796752717
N            3.06554949695035        5.04999376906601       -0.38985165542308
H            3.54259114129389        5.14680546869540        0.48693363097272
H            3.35455212371993        5.68211381641699       -1.11513037069641
N            1.43816541486580        4.09295368965330       -1.77627972611439
H            1.66961964846708        4.72400112075166       -2.52115679744027
H            0.64708167775187        3.48595416017855       -1.95069429951102
